* NGSPICE file created from ir_recorder_replay_chip_top.ext - technology: ihp-sg13g2

* Black-box entry subcircuit for sg13g2_decap_8 abstract view
.subckt sg13g2_decap_8 VDD VSS
.ends

* Black-box entry subcircuit for sg13g2_fill_2 abstract view
.subckt sg13g2_fill_2 VDD VSS
.ends

* Black-box entry subcircuit for sg13g2_decap_4 abstract view
.subckt sg13g2_decap_4 VDD VSS
.ends

* Black-box entry subcircuit for sg13g2_o21ai_1 abstract view
.subckt sg13g2_o21ai_1 B1 VDD Y VSS A1 A2
.ends

* Black-box entry subcircuit for sg13g2_mux2_1 abstract view
.subckt sg13g2_mux2_1 A0 A1 S X VDD VSS
.ends

* Black-box entry subcircuit for sg13g2_fill_1 abstract view
.subckt sg13g2_fill_1 VDD VSS
.ends

* Black-box entry subcircuit for sg13g2_tiehi abstract view
.subckt sg13g2_tiehi VDD VSS L_HI
.ends

* Black-box entry subcircuit for sg13g2_a21oi_1 abstract view
.subckt sg13g2_a21oi_1 VSS VDD A1 A2 Y B1
.ends

* Black-box entry subcircuit for sg13g2_dfrbpq_1 abstract view
.subckt sg13g2_dfrbpq_1 RESET_B VSS VDD D Q CLK
.ends

* Black-box entry subcircuit for sg13g2_dlygate4sd3_1 abstract view
.subckt sg13g2_dlygate4sd3_1 A VDD VSS X
.ends

* Black-box entry subcircuit for sg13g2_nand2b_1 abstract view
.subckt sg13g2_nand2b_1 Y B A_N VDD VSS
.ends

* Black-box entry subcircuit for sg13g2_nand2_1 abstract view
.subckt sg13g2_nand2_1 Y A B VDD VSS
.ends

* Black-box entry subcircuit for sg13g2_a21o_1 abstract view
.subckt sg13g2_a21o_1 A2 A1 B1 X VDD VSS
.ends

* Black-box entry subcircuit for sg13g2_and2_1 abstract view
.subckt sg13g2_and2_1 A B X VDD VSS
.ends

* Black-box entry subcircuit for sg13g2_or2_1 abstract view
.subckt sg13g2_or2_1 VSS VDD X B A
.ends

* Black-box entry subcircuit for sg13g2_inv_1 abstract view
.subckt sg13g2_inv_1 VDD Y A VSS
.ends

* Black-box entry subcircuit for sg13g2_buf_1 abstract view
.subckt sg13g2_buf_1 A X VDD VSS
.ends

* Black-box entry subcircuit for sg13g2_nor2_1 abstract view
.subckt sg13g2_nor2_1 A B Y VDD VSS
.ends

* Black-box entry subcircuit for sg13g2_nand3b_1 abstract view
.subckt sg13g2_nand3b_1 B C Y VDD VSS A_N
.ends

* Black-box entry subcircuit for sg13g2_a22oi_1 abstract view
.subckt sg13g2_a22oi_1 Y B1 B2 A2 A1 VDD VSS
.ends

* Black-box entry subcircuit for sg13g2_buf_8 abstract view
.subckt sg13g2_buf_8 A X VDD VSS
.ends

* Black-box entry subcircuit for sg13g2_xnor2_1 abstract view
.subckt sg13g2_xnor2_1 Y A B VDD VSS
.ends

* Black-box entry subcircuit for sg13g2_nand3_1 abstract view
.subckt sg13g2_nand3_1 B C A Y VDD VSS
.ends

* Black-box entry subcircuit for sg13g2_xor2_1 abstract view
.subckt sg13g2_xor2_1 B A X VDD VSS
.ends

* Black-box entry subcircuit for sg13g2_mux4_1 abstract view
.subckt sg13g2_mux4_1 S0 A0 A1 A2 A3 S1 X VDD VSS
.ends

* Black-box entry subcircuit for sg13g2_a221oi_1 abstract view
.subckt sg13g2_a221oi_1 VDD VSS B2 C1 B1 A1 Y A2
.ends

* Black-box entry subcircuit for sg13g2_nor3_1 abstract view
.subckt sg13g2_nor3_1 A B C Y VDD VSS
.ends

* Black-box entry subcircuit for sg13g2_or3_1 abstract view
.subckt sg13g2_or3_1 A B C X VDD VSS
.ends

* Black-box entry subcircuit for sg13g2_nor4_1 abstract view
.subckt sg13g2_nor4_1 A B C D Y VDD VSS
.ends

* Black-box entry subcircuit for sg13g2_nor2b_1 abstract view
.subckt sg13g2_nor2b_1 A B_N Y VDD VSS
.ends

* Black-box entry subcircuit for sg13g2_and3_1 abstract view
.subckt sg13g2_and3_1 X A B C VDD VSS
.ends

* Black-box entry subcircuit for sg13g2_nand4_1 abstract view
.subckt sg13g2_nand4_1 B C A Y VDD VSS D
.ends

* Black-box entry subcircuit for sg13g2_or4_1 abstract view
.subckt sg13g2_or4_1 A B C D X VDD VSS
.ends

* Black-box entry subcircuit for sg13g2_inv_2 abstract view
.subckt sg13g2_inv_2 Y A VDD VSS
.ends

* Black-box entry subcircuit for sg13g2_buf_16 abstract view
.subckt sg13g2_buf_16 X A VDD VSS
.ends

* Black-box entry subcircuit for sg13g2_and4_1 abstract view
.subckt sg13g2_and4_1 A B C D X VDD VSS
.ends

* Black-box entry subcircuit for sg13g2_inv_4 abstract view
.subckt sg13g2_inv_4 A Y VDD VSS
.ends

* Black-box entry subcircuit for sg13g2_antennanp abstract view
.subckt sg13g2_antennanp VDD VSS A
.ends

.subckt ir_recorder_replay_chip_top VDD VSS busy clk error ir_in ir_tx_npn_drive ld0
+ ld1 ld2 ld3 ld4 ld5 ld6 ld7 rec_done record_req rep_done replay_req rst_n slot_sel[0]
+ slot_sel[1] slot_sel[2] uart_tx
XFILLER_39_211 VDD VSS sg13g2_decap_8
XFILLER_67_553 VDD VSS sg13g2_decap_8
XFILLER_28_918 VDD VSS sg13g2_decap_8
XFILLER_82_501 VDD VSS sg13g2_fill_2
XFILLER_82_512 VDD VSS sg13g2_decap_4
X_3155_ _3184_/B VDD _3155_/Y VSS _3179_/B1 _3155_/A2 sg13g2_o21ai_1
XFILLER_95_873 VDD VSS sg13g2_decap_4
XFILLER_94_350 VDD VSS sg13g2_decap_4
XFILLER_39_288 VDD VSS sg13g2_decap_8
XFILLER_82_523 VDD VSS sg13g2_decap_8
X_3086_ _3086_/A0 hold606/X _4856_/D _4510_/D VDD VSS sg13g2_mux2_1
XFILLER_94_383 VDD VSS sg13g2_fill_1
XFILLER_94_372 VDD VSS sg13g2_decap_8
X_4350__376 VDD VSS _4350_/RESET_B sg13g2_tiehi
XFILLER_51_921 VDD VSS sg13g2_decap_4
X_3988_ VSS VDD _3987_/A _4835_/Q _3988_/Y _3987_/Y sg13g2_a21oi_1
XFILLER_22_199 VDD VSS sg13g2_decap_8
XFILLER_50_497 VDD VSS sg13g2_decap_8
X_2939_ _2939_/A0 _3094_/A0 _2955_/S _2939_/X VDD VSS sg13g2_mux2_1
XFILLER_108_216 VDD VSS sg13g2_decap_8
XFILLER_109_728 VDD VSS sg13g2_decap_8
X_4609_ fanout277/X VSS VDD _4609_/D _4609_/Q _4619_/CLK sg13g2_dfrbpq_1
XFILLER_104_400 VDD VSS sg13g2_decap_8
XFILLER_78_818 VDD VSS sg13g2_fill_2
XFILLER_58_520 VDD VSS sg13g2_decap_8
Xhold1040 _4366_/Q VDD VSS _2936_/A0 sg13g2_dlygate4sd3_1
Xhold1051 _3129_/Y VDD VSS _4552_/D sg13g2_dlygate4sd3_1
XFILLER_93_14 VDD VSS sg13g2_decap_4
XFILLER_86_862 VDD VSS sg13g2_decap_8
XFILLER_45_203 VDD VSS sg13g2_decap_4
XFILLER_45_214 VDD VSS sg13g2_fill_2
XFILLER_45_225 VDD VSS sg13g2_decap_8
XFILLER_46_748 VDD VSS sg13g2_decap_8
XFILLER_73_534 VDD VSS sg13g2_decap_4
XFILLER_85_394 VDD VSS sg13g2_decap_8
Xhold1062 _4707_/Q VDD VSS _3545_/A0 sg13g2_dlygate4sd3_1
Xhold1073 _4387_/Q VDD VSS _2958_/A0 sg13g2_dlygate4sd3_1
Xhold1084 _2886_/X VDD VSS _4319_/D sg13g2_dlygate4sd3_1
Xhold1095 _2829_/X VDD VSS _4266_/D sg13g2_dlygate4sd3_1
XFILLER_26_450 VDD VSS sg13g2_decap_8
XFILLER_53_291 VDD VSS sg13g2_decap_4
XFILLER_42_51 VDD VSS sg13g2_decap_8
XFILLER_10_895 VDD VSS sg13g2_decap_8
XFILLER_6_833 VDD VSS sg13g2_decap_8
XFILLER_5_365 VDD VSS sg13g2_fill_1
XFILLER_107_260 VDD VSS sg13g2_decap_8
XFILLER_108_794 VDD VSS sg13g2_decap_8
XFILLER_69_818 VDD VSS sg13g2_decap_8
XFILLER_96_604 VDD VSS sg13g2_decap_8
XFILLER_96_615 VDD VSS sg13g2_fill_2
XFILLER_95_103 VDD VSS sg13g2_fill_1
XFILLER_110_447 VDD VSS sg13g2_decap_8
XFILLER_68_339 VDD VSS sg13g2_decap_8
XFILLER_49_553 VDD VSS sg13g2_decap_4
XFILLER_67_70 VDD VSS sg13g2_decap_8
XFILLER_37_737 VDD VSS sg13g2_decap_8
XFILLER_37_748 VDD VSS sg13g2_fill_2
XFILLER_37_759 VDD VSS sg13g2_decap_8
XFILLER_64_534 VDD VSS sg13g2_decap_8
XFILLER_76_394 VDD VSS sg13g2_decap_8
XFILLER_52_707 VDD VSS sg13g2_decap_8
X_4960_ fanout296/X VSS VDD _4960_/D _4960_/Q _4960_/CLK sg13g2_dfrbpq_1
XFILLER_91_375 VDD VSS sg13g2_decap_8
XFILLER_44_280 VDD VSS sg13g2_fill_2
X_4891_ fanout310/X VSS VDD _4891_/D _4891_/Q _4894_/CLK sg13g2_dfrbpq_1
X_3911_ _3912_/B _3911_/B _3919_/C VDD VSS sg13g2_nand2b_1
XFILLER_60_762 VDD VSS sg13g2_decap_8
X_3842_ _3842_/Y _3848_/A _3842_/B VDD VSS sg13g2_nand2_1
XFILLER_20_648 VDD VSS sg13g2_decap_8
XFILLER_32_486 VDD VSS sg13g2_decap_8
X_3773_ _3788_/B _3841_/A _3772_/Y _4769_/D VDD VSS sg13g2_a21o_1
XFILLER_66_0 VDD VSS sg13g2_decap_8
X_2724_ _2730_/A _2724_/B _2727_/B VDD VSS sg13g2_and2_1
X_2655_ VSS VDD _2656_/B _2655_/B _2655_/A sg13g2_or2_1
XFILLER_105_219 VDD VSS sg13g2_fill_1
XFILLER_114_742 VDD VSS sg13g2_decap_8
X_4325_ _4325_/RESET_B VSS VDD _4325_/D _4325_/Q _4966_/CLK sg13g2_dfrbpq_1
X_2586_ VDD _3189_/B _3145_/B VSS sg13g2_inv_1
Xfanout105 fanout108/X _2874_/S VDD VSS sg13g2_buf_1
Xfanout116 _3550_/S _3552_/S VDD VSS sg13g2_buf_1
Xfanout127 _3084_/S _3083_/S VDD VSS sg13g2_buf_1
Xfanout138 _4188_/A1 _4241_/A1 VDD VSS sg13g2_buf_1
Xfanout149 _3110_/S _3104_/S VDD VSS sg13g2_buf_1
X_4256_ _4255_/Y VDD _4256_/Y VSS _4253_/Y _4254_/Y sg13g2_o21ai_1
XFILLER_101_458 VDD VSS sg13g2_fill_1
XFILLER_28_704 VDD VSS sg13g2_decap_4
X_4187_ _4187_/A _4378_/Q _4187_/Y VDD VSS sg13g2_nor2_1
X_3207_ _2645_/A VDD _4587_/D VSS _3193_/B _3206_/Y sg13g2_o21ai_1
XFILLER_86_169 VDD VSS sg13g2_fill_1
XFILLER_86_158 VDD VSS sg13g2_decap_4
XFILLER_28_737 VDD VSS sg13g2_decap_4
X_3138_ _3138_/Y _3138_/A _3138_/B VDD VSS sg13g2_nand2_1
XFILLER_94_180 VDD VSS sg13g2_decap_8
XFILLER_103_35 VDD VSS sg13g2_decap_4
XFILLER_43_707 VDD VSS sg13g2_decap_8
XFILLER_83_865 VDD VSS sg13g2_decap_8
XFILLER_36_781 VDD VSS sg13g2_decap_8
XFILLER_55_589 VDD VSS sg13g2_decap_8
XFILLER_63_28 VDD VSS sg13g2_decap_8
X_3069_ _4109_/B _3069_/A1 _3085_/S _4494_/D VDD VSS sg13g2_mux2_1
XFILLER_35_280 VDD VSS sg13g2_decap_8
XFILLER_70_548 VDD VSS sg13g2_decap_8
XFILLER_70_559 VDD VSS sg13g2_fill_2
XFILLER_23_475 VDD VSS sg13g2_decap_4
XFILLER_51_762 VDD VSS sg13g2_decap_8
XFILLER_51_773 VDD VSS sg13g2_fill_2
XFILLER_51_795 VDD VSS sg13g2_fill_1
XFILLER_10_136 VDD VSS sg13g2_decap_8
XFILLER_12_21 VDD VSS sg13g2_decap_8
XFILLER_7_619 VDD VSS sg13g2_decap_8
XFILLER_109_536 VDD VSS sg13g2_decap_8
XFILLER_2_302 VDD VSS sg13g2_decap_8
XFILLER_3_814 VDD VSS sg13g2_decap_8
XFILLER_88_14 VDD VSS sg13g2_decap_8
XFILLER_104_274 VDD VSS sg13g2_fill_2
XFILLER_19_704 VDD VSS sg13g2_decap_8
XFILLER_93_629 VDD VSS sg13g2_decap_8
XFILLER_74_821 VDD VSS sg13g2_decap_8
XFILLER_74_832 VDD VSS sg13g2_fill_2
XFILLER_74_843 VDD VSS sg13g2_decap_8
XFILLER_92_117 VDD VSS sg13g2_decap_8
XFILLER_37_84 VDD VSS sg13g2_decap_4
XFILLER_46_545 VDD VSS sg13g2_decap_8
XFILLER_46_556 VDD VSS sg13g2_fill_2
XFILLER_27_781 VDD VSS sg13g2_decap_8
X_4333__393 VDD VSS _4333_/RESET_B sg13g2_tiehi
XFILLER_33_228 VDD VSS sg13g2_decap_8
XFILLER_61_548 VDD VSS sg13g2_decap_8
XFILLER_53_61 VDD VSS sg13g2_decap_8
XFILLER_53_72 VDD VSS sg13g2_fill_1
XFILLER_6_641 VDD VSS sg13g2_decap_8
XFILLER_108_580 VDD VSS sg13g2_decap_8
X_4340__386 VDD VSS _4340_/RESET_B sg13g2_tiehi
X_2440_ _2440_/B _2809_/A _2440_/Y VDD VSS _2433_/Y sg13g2_nand3b_1
X_2371_ _2370_/Y VDD _2371_/Y VSS _4666_/Q _4658_/Q sg13g2_o21ai_1
XFILLER_97_924 VDD VSS sg13g2_fill_2
XFILLER_96_412 VDD VSS sg13g2_decap_8
XFILLER_69_648 VDD VSS sg13g2_decap_8
X_4110_ _4109_/Y VDD _4110_/Y VSS _4107_/Y _4108_/Y sg13g2_o21ai_1
X_4041_ VSS VDD _4225_/A1 _4037_/X _4041_/Y _4040_/Y sg13g2_a21oi_1
XFILLER_37_534 VDD VSS sg13g2_decap_8
XFILLER_49_361 VDD VSS sg13g2_fill_1
XFILLER_65_876 VDD VSS sg13g2_decap_8
XFILLER_92_662 VDD VSS sg13g2_decap_8
XFILLER_24_217 VDD VSS sg13g2_fill_1
XFILLER_52_526 VDD VSS sg13g2_decap_8
XFILLER_64_386 VDD VSS sg13g2_decap_8
XFILLER_80_813 VDD VSS sg13g2_decap_8
XFILLER_91_150 VDD VSS sg13g2_decap_8
XFILLER_52_559 VDD VSS sg13g2_decap_8
X_4943_ fanout279/X VSS VDD _4943_/D _4943_/Q _4954_/CLK sg13g2_dfrbpq_1
XFILLER_20_412 VDD VSS sg13g2_decap_8
XFILLER_21_924 VDD VSS sg13g2_fill_2
XFILLER_32_283 VDD VSS sg13g2_decap_4
X_4874_ fanout304/X VSS VDD _4874_/D _4874_/Q _4877_/CLK sg13g2_dfrbpq_1
XFILLER_20_456 VDD VSS sg13g2_decap_8
X_3825_ _3825_/Y _3837_/B1 _3824_/Y _3828_/A2 _3385_/A VDD VSS sg13g2_a22oi_1
Xclkbuf_4_12_0_clk clkbuf_0_clk/X clkbuf_4_12_0_clk/X VDD VSS sg13g2_buf_8
X_3756_ _3756_/Y _3829_/A _3764_/D VDD VSS sg13g2_xnor2_1
X_2707_ _4863_/D _2707_/A _2707_/B VDD VSS sg13g2_nand2_1
X_3687_ _3687_/B _3694_/C _3697_/A _3688_/C VDD VSS sg13g2_nand3_1
X_2638_ _2236_/Y _2638_/A1 _4121_/A _4846_/D VDD VSS sg13g2_a21o_1
XFILLER_114_561 VDD VSS sg13g2_fill_2
X_2569_ _2569_/B _2571_/A _2569_/X VDD VSS sg13g2_xor2_1
XFILLER_101_200 VDD VSS sg13g2_decap_8
XFILLER_102_756 VDD VSS sg13g2_decap_8
X_4308_ _4308_/RESET_B VSS VDD _4308_/D _4308_/Q _4397_/CLK sg13g2_dfrbpq_1
X_4239_ _4240_/A _4284_/Q _4309_/Q _4334_/Q _4359_/Q _4241_/B1 _4239_/X VDD VSS sg13g2_mux4_1
XFILLER_28_512 VDD VSS sg13g2_fill_2
XFILLER_74_106 VDD VSS sg13g2_decap_8
XFILLER_56_865 VDD VSS sg13g2_decap_8
XFILLER_28_578 VDD VSS sg13g2_decap_8
XFILLER_43_515 VDD VSS sg13g2_decap_8
XFILLER_43_526 VDD VSS sg13g2_fill_2
XFILLER_55_386 VDD VSS sg13g2_decap_8
XFILLER_82_150 VDD VSS sg13g2_decap_8
XFILLER_83_684 VDD VSS sg13g2_fill_2
XFILLER_15_239 VDD VSS sg13g2_decap_8
XFILLER_43_537 VDD VSS sg13g2_fill_1
XFILLER_12_902 VDD VSS sg13g2_decap_8
XFILLER_23_250 VDD VSS sg13g2_decap_8
XFILLER_24_751 VDD VSS sg13g2_decap_8
XFILLER_70_367 VDD VSS sg13g2_decap_8
XFILLER_51_581 VDD VSS sg13g2_decap_8
XFILLER_90_48 VDD VSS sg13g2_fill_2
XFILLER_23_53 VDD VSS sg13g2_fill_2
XFILLER_11_489 VDD VSS sg13g2_decap_4
XFILLER_7_438 VDD VSS sg13g2_decap_4
XFILLER_109_366 VDD VSS sg13g2_decap_8
XFILLER_79_902 VDD VSS sg13g2_fill_2
XFILLER_3_688 VDD VSS sg13g2_decap_8
XFILLER_79_913 VDD VSS sg13g2_decap_8
XFILLER_79_924 VDD VSS sg13g2_fill_2
XFILLER_97_209 VDD VSS sg13g2_decap_8
XFILLER_47_832 VDD VSS sg13g2_decap_4
XFILLER_59_692 VDD VSS sg13g2_fill_1
XFILLER_65_128 VDD VSS sg13g2_decap_8
XFILLER_93_437 VDD VSS sg13g2_decap_8
XFILLER_0_35 VDD VSS sg13g2_decap_8
XFILLER_19_556 VDD VSS sg13g2_decap_8
XFILLER_47_865 VDD VSS sg13g2_decap_8
XFILLER_46_353 VDD VSS sg13g2_decap_4
XFILLER_61_301 VDD VSS sg13g2_decap_8
XFILLER_73_150 VDD VSS sg13g2_fill_2
XFILLER_73_194 VDD VSS sg13g2_decap_4
XFILLER_61_378 VDD VSS sg13g2_decap_8
XFILLER_62_879 VDD VSS sg13g2_decap_8
XFILLER_30_765 VDD VSS sg13g2_decap_4
XFILLER_9_55 VDD VSS sg13g2_decap_8
XFILLER_30_787 VDD VSS sg13g2_decap_8
XFILLER_80_70 VDD VSS sg13g2_decap_8
X_4590_ fanout281/X VSS VDD _4590_/D _4590_/Q _4946_/CLK sg13g2_dfrbpq_1
X_3610_ _3610_/Y _3612_/A _3610_/B VDD VSS sg13g2_nand2_1
X_3541_ _4703_/Q hold784/X _3550_/S _3541_/X VDD VSS sg13g2_mux2_1
XFILLER_115_303 VDD VSS sg13g2_decap_8
Xhold928 _4353_/Q VDD VSS hold928/X sg13g2_dlygate4sd3_1
Xhold917 _4445_/Q VDD VSS hold917/X sg13g2_dlygate4sd3_1
Xhold906 _4469_/Q VDD VSS hold906/X sg13g2_dlygate4sd3_1
XFILLER_115_358 VDD VSS sg13g2_decap_4
XFILLER_116_859 VDD VSS sg13g2_decap_8
XFILLER_6_482 VDD VSS sg13g2_decap_8
Xhold939 _4340_/Q VDD VSS hold939/X sg13g2_dlygate4sd3_1
X_3472_ _3471_/Y VDD _4673_/D VSS _2290_/Y _3453_/C sg13g2_o21ai_1
X_4418__508 VDD VSS _4418_/RESET_B sg13g2_tiehi
X_2423_ VSS VDD _2357_/A _2422_/Y _2423_/Y _2813_/A sg13g2_a21oi_1
X_2354_ VDD _2453_/C _2354_/A VSS sg13g2_inv_1
XFILLER_96_220 VDD VSS sg13g2_decap_8
XFILLER_111_542 VDD VSS sg13g2_decap_4
XFILLER_29_0 VDD VSS sg13g2_decap_8
Xhold1606 _4765_/Q VDD VSS _3829_/A sg13g2_dlygate4sd3_1
Xhold1617 _4721_/Q VDD VSS _3584_/A sg13g2_dlygate4sd3_1
XFILLER_111_597 VDD VSS sg13g2_fill_2
XFILLER_69_489 VDD VSS sg13g2_decap_8
Xhold1628 _4900_/Q VDD VSS _3789_/A sg13g2_dlygate4sd3_1
Xhold1639 _4789_/Q VDD VSS _2311_/A sg13g2_dlygate4sd3_1
X_2285_ VDD _2285_/Y _3481_/A VSS sg13g2_inv_1
XFILLER_65_640 VDD VSS sg13g2_decap_8
XFILLER_84_459 VDD VSS sg13g2_decap_8
X_4024_ _4052_/A _4262_/Q _4287_/Q _4312_/Q _4337_/Q _4226_/S1 _4024_/X VDD VSS sg13g2_mux4_1
XFILLER_53_802 VDD VSS sg13g2_decap_8
XFILLER_65_684 VDD VSS sg13g2_fill_1
XFILLER_100_14 VDD VSS sg13g2_decap_8
X_4926_ fanout264/X VSS VDD _4926_/D _4926_/Q _4926_/CLK sg13g2_dfrbpq_1
X_4857_ fanout280/X VSS VDD _4857_/D _4857_/Q _4942_/CLK sg13g2_dfrbpq_1
XFILLER_21_798 VDD VSS sg13g2_decap_8
X_3808_ _3808_/Y _3806_/Y _3837_/B1 _3837_/A2 _2324_/Y VDD VSS sg13g2_a22oi_1
XFILLER_20_286 VDD VSS sg13g2_decap_8
X_4788_ fanout248/X VSS VDD _4788_/D _4788_/Q clkload2/A sg13g2_dfrbpq_1
X_3739_ _3739_/Y _3740_/A _3758_/B VDD VSS sg13g2_nand2_1
XFILLER_109_78 VDD VSS sg13g2_decap_8
XFILLER_115_870 VDD VSS sg13g2_decap_8
XFILLER_79_209 VDD VSS sg13g2_decap_8
XFILLER_88_732 VDD VSS sg13g2_decap_8
XFILLER_0_669 VDD VSS sg13g2_decap_8
XFILLER_102_542 VDD VSS sg13g2_decap_8
XFILLER_88_787 VDD VSS sg13g2_decap_8
XFILLER_87_231 VDD VSS sg13g2_decap_8
XFILLER_85_59 VDD VSS sg13g2_decap_8
XFILLER_18_42 VDD VSS sg13g2_decap_8
XFILLER_29_854 VDD VSS sg13g2_decap_8
XFILLER_75_448 VDD VSS sg13g2_decap_8
XFILLER_43_301 VDD VSS sg13g2_decap_8
XFILLER_71_610 VDD VSS sg13g2_decap_8
XFILLER_44_846 VDD VSS sg13g2_decap_8
XFILLER_71_632 VDD VSS sg13g2_fill_1
XFILLER_16_559 VDD VSS sg13g2_decap_4
XFILLER_70_142 VDD VSS sg13g2_decap_8
X_4330__396 VDD VSS _4330_/RESET_B sg13g2_tiehi
XFILLER_31_529 VDD VSS sg13g2_decap_8
XFILLER_43_389 VDD VSS sg13g2_decap_8
XFILLER_12_765 VDD VSS sg13g2_fill_1
XFILLER_11_242 VDD VSS sg13g2_decap_8
XFILLER_11_275 VDD VSS sg13g2_decap_8
XFILLER_7_202 VDD VSS sg13g2_decap_8
XFILLER_113_807 VDD VSS sg13g2_decap_4
XFILLER_98_518 VDD VSS sg13g2_decap_8
XFILLER_106_881 VDD VSS sg13g2_decap_8
XFILLER_59_71 VDD VSS sg13g2_fill_1
XFILLER_22_7 VDD VSS sg13g2_fill_1
XFILLER_94_702 VDD VSS sg13g2_decap_8
XFILLER_78_264 VDD VSS sg13g2_decap_8
XFILLER_78_275 VDD VSS sg13g2_fill_2
XFILLER_66_448 VDD VSS sg13g2_decap_4
XFILLER_94_779 VDD VSS sg13g2_decap_8
XFILLER_93_245 VDD VSS sg13g2_decap_8
XFILLER_46_183 VDD VSS sg13g2_decap_8
XFILLER_35_868 VDD VSS sg13g2_decap_8
XFILLER_61_186 VDD VSS sg13g2_decap_8
X_2972_ _2972_/A0 _3101_/A0 _2975_/S _4401_/D VDD VSS sg13g2_mux2_1
X_4711_ fanout322/X VSS VDD _4711_/D _4711_/Q _4979_/CLK sg13g2_dfrbpq_1
XFILLER_91_80 VDD VSS sg13g2_fill_1
X_4642_ fanout268/X VSS VDD _4642_/D _4642_/Q _4745_/CLK sg13g2_dfrbpq_1
Xhold703 _3704_/Y VDD VSS _4752_/D sg13g2_dlygate4sd3_1
X_4573_ fanout333/X VSS VDD _4573_/D _4573_/Q _4580_/CLK sg13g2_dfrbpq_1
Xhold736 _4678_/Q VDD VSS _3479_/A sg13g2_dlygate4sd3_1
Xhold725 _3265_/Y VDD VSS hold725/X sg13g2_dlygate4sd3_1
Xhold714 _4722_/Q VDD VSS _3587_/C sg13g2_dlygate4sd3_1
X_3524_ _3556_/B _3524_/A _3596_/B VDD VSS sg13g2_nand2_1
XFILLER_115_144 VDD VSS sg13g2_fill_1
XFILLER_116_667 VDD VSS sg13g2_fill_2
Xhold769 _4777_/Q VDD VSS _2327_/A sg13g2_dlygate4sd3_1
Xhold758 _4961_/Q VDD VSS _4079_/B sg13g2_dlygate4sd3_1
Xhold747 _2421_/X VDD VSS _4925_/D sg13g2_dlygate4sd3_1
X_3455_ _3473_/B _3475_/C _3455_/A _3455_/Y VDD VSS sg13g2_nand3_1
X_2406_ _2800_/A _2406_/B _2431_/C VDD VSS sg13g2_and2_1
XFILLER_69_242 VDD VSS sg13g2_decap_4
X_3386_ _3329_/A VDD _3386_/Y VSS _4785_/Q _3385_/Y sg13g2_o21ai_1
XFILLER_97_562 VDD VSS sg13g2_fill_1
XFILLER_84_201 VDD VSS sg13g2_fill_2
Xhold1403 _4654_/Q VDD VSS _3431_/A sg13g2_dlygate4sd3_1
Xhold1414 _2438_/Y VDD VSS _4915_/D sg13g2_dlygate4sd3_1
Xhold1425 _3591_/Y VDD VSS _3593_/B sg13g2_dlygate4sd3_1
X_2337_ VDD _2337_/Y _2634_/A VSS sg13g2_inv_1
XFILLER_97_595 VDD VSS sg13g2_decap_8
XFILLER_85_713 VDD VSS sg13g2_decap_8
XFILLER_84_245 VDD VSS sg13g2_decap_8
Xhold1436 _3738_/Y VDD VSS _4759_/D sg13g2_dlygate4sd3_1
Xhold1447 _3624_/X VDD VSS _4736_/D sg13g2_dlygate4sd3_1
Xhold1458 _4732_/Q VDD VSS _3620_/A0 sg13g2_dlygate4sd3_1
X_2268_ VDD _2268_/Y _4654_/Q VSS sg13g2_inv_1
Xhold1469 _3653_/X VDD VSS _4748_/D sg13g2_dlygate4sd3_1
X_4007_ VDD VSS _4842_/Q _4006_/Y _4831_/Q _4006_/B _4007_/Y _3981_/A sg13g2_a221oi_1
XFILLER_25_334 VDD VSS sg13g2_fill_1
XFILLER_93_790 VDD VSS sg13g2_fill_2
XFILLER_111_35 VDD VSS sg13g2_decap_4
XFILLER_37_194 VDD VSS sg13g2_decap_8
XFILLER_80_451 VDD VSS sg13g2_decap_8
XFILLER_13_529 VDD VSS sg13g2_fill_2
XFILLER_40_348 VDD VSS sg13g2_decap_8
X_4909_ fanout258/X VSS VDD _4909_/D _4909_/Q clkload7/A sg13g2_dfrbpq_1
XFILLER_21_584 VDD VSS sg13g2_decap_8
XFILLER_5_739 VDD VSS sg13g2_decap_8
XFILLER_107_634 VDD VSS sg13g2_decap_8
XFILLER_107_645 VDD VSS sg13g2_fill_2
XFILLER_20_21 VDD VSS sg13g2_decap_8
XFILLER_1_901 VDD VSS sg13g2_decap_8
XFILLER_20_76 VDD VSS sg13g2_decap_8
XFILLER_96_14 VDD VSS sg13g2_decap_8
XFILLER_88_551 VDD VSS sg13g2_decap_8
XFILLER_0_466 VDD VSS sg13g2_decap_8
XFILLER_29_74 VDD VSS sg13g2_decap_8
XFILLER_48_448 VDD VSS sg13g2_decap_8
XFILLER_29_673 VDD VSS sg13g2_decap_8
XFILLER_90_204 VDD VSS sg13g2_decap_8
XFILLER_17_846 VDD VSS sg13g2_decap_8
XFILLER_28_161 VDD VSS sg13g2_fill_2
XFILLER_28_183 VDD VSS sg13g2_decap_4
XFILLER_44_610 VDD VSS sg13g2_decap_8
XFILLER_90_248 VDD VSS sg13g2_decap_8
XFILLER_43_153 VDD VSS sg13g2_decap_8
XFILLER_44_687 VDD VSS sg13g2_decap_8
XFILLER_31_337 VDD VSS sg13g2_decap_8
X_4408__518 VDD VSS _4408_/RESET_B sg13g2_tiehi
XFILLER_12_551 VDD VSS sg13g2_fill_2
XFILLER_40_871 VDD VSS sg13g2_decap_8
XFILLER_8_522 VDD VSS sg13g2_decap_8
XFILLER_12_584 VDD VSS sg13g2_decap_8
XFILLER_12_595 VDD VSS sg13g2_fill_2
XFILLER_8_577 VDD VSS sg13g2_decap_8
XFILLER_6_78 VDD VSS sg13g2_decap_8
XFILLER_112_114 VDD VSS sg13g2_fill_1
XFILLER_113_659 VDD VSS sg13g2_fill_1
X_3240_ _3240_/Y _3242_/B _3244_/A VDD VSS sg13g2_nand2b_1
XFILLER_79_562 VDD VSS sg13g2_decap_8
X_3171_ _2510_/B VDD _3171_/Y VSS _3169_/A _3169_/B sg13g2_o21ai_1
XFILLER_86_80 VDD VSS sg13g2_decap_8
XFILLER_26_109 VDD VSS sg13g2_fill_2
XFILLER_54_418 VDD VSS sg13g2_decap_8
XFILLER_66_256 VDD VSS sg13g2_decap_4
XFILLER_67_779 VDD VSS sg13g2_decap_8
XFILLER_81_204 VDD VSS sg13g2_fill_2
XFILLER_19_172 VDD VSS sg13g2_decap_8
XFILLER_47_481 VDD VSS sg13g2_decap_8
XFILLER_35_643 VDD VSS sg13g2_decap_8
XFILLER_62_451 VDD VSS sg13g2_decap_4
XFILLER_34_175 VDD VSS sg13g2_decap_8
XFILLER_50_646 VDD VSS sg13g2_decap_8
XFILLER_96_0 VDD VSS sg13g2_decap_8
XFILLER_31_860 VDD VSS sg13g2_decap_8
XFILLER_31_871 VDD VSS sg13g2_fill_1
X_2955_ hold867/X _3110_/A0 _2955_/S _2955_/X VDD VSS sg13g2_mux2_1
X_2886_ _2886_/A0 _3094_/A0 _2896_/S _2886_/X VDD VSS sg13g2_mux2_1
X_4625_ fanout285/X VSS VDD _4625_/D _4625_/Q _4658_/CLK sg13g2_dfrbpq_1
X_4556_ fanout266/X VSS VDD _4556_/D _4556_/Q clkload8/A sg13g2_dfrbpq_1
Xhold544 _4928_/Q VDD VSS _3293_/B sg13g2_dlygate4sd3_1
X_3507_ _3513_/B _3507_/B _3509_/A VDD VSS sg13g2_nor2_1
Xhold555 _4898_/Q VDD VSS _4257_/A sg13g2_dlygate4sd3_1
Xhold566 _4943_/Q VDD VSS _2730_/A sg13g2_dlygate4sd3_1
Xhold577 _3135_/Y VDD VSS _4555_/D sg13g2_dlygate4sd3_1
Xhold588 _4553_/Q VDD VSS _3130_/A sg13g2_dlygate4sd3_1
X_4487_ fanout307/X VSS VDD _4487_/D _4487_/Q _4967_/CLK sg13g2_dfrbpq_1
Xhold599 _4837_/Q VDD VSS _4001_/A sg13g2_dlygate4sd3_1
X_3438_ _3437_/Y VDD _3438_/Y VSS _2272_/Y _3471_/C sg13g2_o21ai_1
XFILLER_89_359 VDD VSS sg13g2_decap_8
Xhold1200 _4295_/Q VDD VSS _2860_/A0 sg13g2_dlygate4sd3_1
X_3369_ _3469_/A _3369_/A1 _3369_/S _4645_/D VDD VSS sg13g2_mux2_1
XFILLER_98_871 VDD VSS sg13g2_decap_8
XFILLER_100_854 VDD VSS sg13g2_decap_8
XFILLER_66_28 VDD VSS sg13g2_decap_8
Xhold1211 _4357_/Q VDD VSS _2925_/A0 sg13g2_dlygate4sd3_1
Xhold1222 _4518_/Q VDD VSS hold1222/X sg13g2_dlygate4sd3_1
Xhold1233 _3922_/Y VDD VSS _3923_/B sg13g2_dlygate4sd3_1
XFILLER_97_392 VDD VSS sg13g2_decap_8
XFILLER_85_554 VDD VSS sg13g2_decap_8
Xhold1244 _4573_/Q VDD VSS _3174_/A sg13g2_dlygate4sd3_1
Xhold1255 _4681_/Q VDD VSS _3485_/A sg13g2_dlygate4sd3_1
Xhold1266 _4275_/Q VDD VSS _2838_/A0 sg13g2_dlygate4sd3_1
Xhold1277 _2848_/X VDD VSS _4285_/D sg13g2_dlygate4sd3_1
Xhold1288 _3125_/X VDD VSS _4549_/D sg13g2_dlygate4sd3_1
Xhold1299 _4503_/Q VDD VSS _3079_/A1 sg13g2_dlygate4sd3_1
XFILLER_14_805 VDD VSS sg13g2_decap_8
XFILLER_25_142 VDD VSS sg13g2_decap_8
XFILLER_53_451 VDD VSS sg13g2_fill_2
XFILLER_25_164 VDD VSS sg13g2_decap_8
XFILLER_53_473 VDD VSS sg13g2_decap_8
XFILLER_13_348 VDD VSS sg13g2_decap_8
XFILLER_40_123 VDD VSS sg13g2_decap_8
XFILLER_15_87 VDD VSS sg13g2_decap_8
XFILLER_40_167 VDD VSS sg13g2_decap_8
XFILLER_9_308 VDD VSS sg13g2_decap_8
XFILLER_31_42 VDD VSS sg13g2_decap_8
XFILLER_107_464 VDD VSS sg13g2_decap_8
Xoutput20 _4932_/Q rep_done VDD VSS sg13g2_buf_1
XFILLER_96_819 VDD VSS sg13g2_decap_4
XFILLER_0_252 VDD VSS sg13g2_decap_8
XFILLER_103_670 VDD VSS sg13g2_fill_1
XFILLER_1_775 VDD VSS sg13g2_decap_8
XFILLER_49_702 VDD VSS sg13g2_decap_8
XFILLER_95_307 VDD VSS sg13g2_decap_8
XFILLER_89_882 VDD VSS sg13g2_fill_1
XFILLER_37_908 VDD VSS sg13g2_decap_8
XFILLER_48_223 VDD VSS sg13g2_decap_8
XFILLER_91_568 VDD VSS sg13g2_decap_8
XFILLER_44_484 VDD VSS sg13g2_decap_8
XFILLER_60_922 VDD VSS sg13g2_decap_4
XFILLER_31_112 VDD VSS sg13g2_decap_8
XFILLER_31_123 VDD VSS sg13g2_fill_1
XFILLER_31_156 VDD VSS sg13g2_decap_8
XFILLER_12_370 VDD VSS sg13g2_decap_4
XFILLER_13_882 VDD VSS sg13g2_decap_8
X_2740_ _2740_/Y _2742_/B hold1522/X VDD VSS sg13g2_nand2b_1
XFILLER_9_842 VDD VSS sg13g2_decap_8
X_2671_ VSS VDD _2666_/Y _2667_/Y _2671_/Y _3511_/A sg13g2_a21oi_1
X_4410_ _4410_/RESET_B VSS VDD _4410_/D _4410_/Q _4961_/CLK sg13g2_dfrbpq_1
XFILLER_114_913 VDD VSS sg13g2_decap_8
XFILLER_114_924 VDD VSS sg13g2_fill_2
X_4341_ _4341_/RESET_B VSS VDD _4341_/D _4341_/Q clkload6/A sg13g2_dfrbpq_1
XFILLER_99_635 VDD VSS sg13g2_decap_8
Xfanout309 fanout310/X fanout309/X VDD VSS sg13g2_buf_1
X_4272_ _4272_/RESET_B VSS VDD _4272_/D _4272_/Q _4397_/CLK sg13g2_dfrbpq_1
XFILLER_98_134 VDD VSS sg13g2_decap_8
X_3223_ _3230_/A _3223_/B _4594_/D VDD VSS sg13g2_nor2_1
XFILLER_79_381 VDD VSS sg13g2_decap_8
XFILLER_95_852 VDD VSS sg13g2_decap_8
XFILLER_11_0 VDD VSS sg13g2_decap_8
XFILLER_39_267 VDD VSS sg13g2_decap_8
X_3154_ _3154_/B _3154_/A _3154_/X VDD VSS sg13g2_xor2_1
XFILLER_94_340 VDD VSS sg13g2_fill_1
XFILLER_55_749 VDD VSS sg13g2_decap_8
X_3085_ _4255_/B hold794/X _3085_/S _4509_/D VDD VSS sg13g2_mux2_1
XFILLER_23_624 VDD VSS sg13g2_decap_8
XFILLER_63_771 VDD VSS sg13g2_fill_2
XFILLER_22_123 VDD VSS sg13g2_decap_8
XFILLER_22_156 VDD VSS sg13g2_decap_4
XFILLER_23_679 VDD VSS sg13g2_decap_8
X_3987_ _3987_/A _3987_/B _3987_/Y VDD VSS sg13g2_nor2_1
XFILLER_10_329 VDD VSS sg13g2_fill_2
XFILLER_22_178 VDD VSS sg13g2_decap_8
X_2938_ hold833/X _3017_/A1 _2953_/S _4368_/D VDD VSS sg13g2_mux2_1
XFILLER_109_707 VDD VSS sg13g2_decap_8
X_2869_ _2869_/A0 _3104_/A0 _2869_/S _4304_/D VDD VSS sg13g2_mux2_1
XFILLER_105_913 VDD VSS sg13g2_decap_8
X_4608_ fanout277/X VSS VDD _4608_/D _4608_/Q _4950_/CLK sg13g2_dfrbpq_1
XFILLER_105_924 VDD VSS sg13g2_fill_2
XFILLER_2_528 VDD VSS sg13g2_fill_2
XFILLER_2_539 VDD VSS sg13g2_decap_8
X_4539_ fanout285/X VSS VDD _4539_/D _4539_/Q _4559_/CLK sg13g2_dfrbpq_1
XFILLER_89_112 VDD VSS sg13g2_decap_8
XFILLER_104_478 VDD VSS sg13g2_decap_8
XFILLER_86_841 VDD VSS sg13g2_decap_8
XFILLER_46_716 VDD VSS sg13g2_decap_8
XFILLER_58_565 VDD VSS sg13g2_decap_8
Xhold1030 _4365_/Q VDD VSS _4052_/B sg13g2_dlygate4sd3_1
Xhold1041 _2936_/X VDD VSS _4366_/D sg13g2_dlygate4sd3_1
XFILLER_73_513 VDD VSS sg13g2_decap_8
XFILLER_85_373 VDD VSS sg13g2_decap_8
Xhold1052 _4355_/Q VDD VSS _2923_/A0 sg13g2_dlygate4sd3_1
Xhold1063 _4462_/Q VDD VSS _3547_/A1 sg13g2_dlygate4sd3_1
Xhold1074 _4419_/Q VDD VSS _2992_/A0 sg13g2_dlygate4sd3_1
Xhold1085 _4367_/Q VDD VSS _2937_/A0 sg13g2_dlygate4sd3_1
XFILLER_93_37 VDD VSS sg13g2_decap_8
XFILLER_93_26 VDD VSS sg13g2_fill_2
Xhold1096 _4429_/Q VDD VSS _3002_/A0 sg13g2_dlygate4sd3_1
XFILLER_14_613 VDD VSS sg13g2_fill_2
XFILLER_26_64 VDD VSS sg13g2_fill_1
XFILLER_13_112 VDD VSS sg13g2_decap_8
XFILLER_53_270 VDD VSS sg13g2_decap_8
XFILLER_14_679 VDD VSS sg13g2_decap_8
XFILLER_41_454 VDD VSS sg13g2_fill_2
XFILLER_41_487 VDD VSS sg13g2_decap_4
XFILLER_9_149 VDD VSS sg13g2_decap_8
XFILLER_6_812 VDD VSS sg13g2_decap_8
XFILLER_10_874 VDD VSS sg13g2_decap_8
XFILLER_114_209 VDD VSS sg13g2_decap_8
XFILLER_108_773 VDD VSS sg13g2_decap_8
XFILLER_6_889 VDD VSS sg13g2_decap_8
XFILLER_111_916 VDD VSS sg13g2_decap_8
XFILLER_3_35 VDD VSS sg13g2_decap_8
XFILLER_110_426 VDD VSS sg13g2_decap_8
XFILLER_49_521 VDD VSS sg13g2_fill_2
XFILLER_49_532 VDD VSS sg13g2_fill_2
XFILLER_96_649 VDD VSS sg13g2_decap_8
XFILLER_37_716 VDD VSS sg13g2_decap_8
XFILLER_76_340 VDD VSS sg13g2_decap_8
XFILLER_76_351 VDD VSS sg13g2_fill_2
XFILLER_77_852 VDD VSS sg13g2_fill_1
XFILLER_77_885 VDD VSS sg13g2_decap_4
XFILLER_95_159 VDD VSS sg13g2_fill_1
XFILLER_49_598 VDD VSS sg13g2_decap_8
XFILLER_64_513 VDD VSS sg13g2_decap_8
XFILLER_76_373 VDD VSS sg13g2_decap_8
XFILLER_91_321 VDD VSS sg13g2_decap_8
XFILLER_91_354 VDD VSS sg13g2_decap_8
XFILLER_92_888 VDD VSS sg13g2_decap_4
XFILLER_17_484 VDD VSS sg13g2_fill_1
X_4890_ fanout310/X VSS VDD _4890_/D _4890_/Q _4894_/CLK sg13g2_dfrbpq_1
X_3910_ _3918_/B _3910_/B _3919_/C VDD VSS sg13g2_and2_1
XFILLER_91_398 VDD VSS sg13g2_fill_1
XFILLER_20_605 VDD VSS sg13g2_decap_8
XFILLER_20_616 VDD VSS sg13g2_fill_2
X_3841_ _3841_/B _3841_/A _3842_/B VDD VSS sg13g2_xor2_1
XFILLER_20_627 VDD VSS sg13g2_decap_8
X_3772_ _3786_/B _3779_/C _3772_/C _3772_/Y VDD VSS sg13g2_nor3_1
XFILLER_13_690 VDD VSS sg13g2_decap_8
X_2723_ _2730_/A _2752_/A _4943_/D VDD VSS sg13g2_nor2_1
XFILLER_9_672 VDD VSS sg13g2_decap_4
XFILLER_8_171 VDD VSS sg13g2_decap_4
X_2654_ _3513_/A _3511_/B _2654_/A _2655_/B VDD VSS sg13g2_nand3_1
XFILLER_59_0 VDD VSS sg13g2_decap_8
X_2585_ _4851_/Q _4929_/Q _2585_/Y VDD VSS sg13g2_nor2_1
X_4324_ _4324_/RESET_B VSS VDD _4324_/D _4324_/Q _4968_/CLK sg13g2_dfrbpq_1
Xfanout106 fanout108/X _2875_/S VDD VSS sg13g2_buf_1
Xfanout117 _3553_/S _3550_/S VDD VSS sg13g2_buf_1
Xfanout128 _3082_/S _3084_/S VDD VSS sg13g2_buf_1
Xfanout139 _4188_/A1 _4196_/A1 VDD VSS sg13g2_buf_1
X_4255_ _4255_/Y _4255_/B _4169_/A VDD VSS sg13g2_nand2b_1
XFILLER_86_137 VDD VSS sg13g2_decap_4
X_4186_ _4428_/Q _4453_/Q _4186_/S _4186_/X VDD VSS sg13g2_mux2_1
X_3206_ _3206_/Y _3206_/A _3206_/B VDD VSS sg13g2_xnor2_1
XFILLER_86_148 VDD VSS sg13g2_fill_1
XFILLER_103_14 VDD VSS sg13g2_decap_8
XFILLER_27_215 VDD VSS sg13g2_decap_4
X_3137_ _3136_/Y VDD _3137_/Y VSS _4629_/Q _3136_/B sg13g2_o21ai_1
XFILLER_55_568 VDD VSS sg13g2_decap_8
XFILLER_82_332 VDD VSS sg13g2_fill_2
XFILLER_24_922 VDD VSS sg13g2_decap_4
XFILLER_36_760 VDD VSS sg13g2_decap_4
X_3068_ _3067_/Y VDD _4493_/D VSS _2352_/Y _3085_/S sg13g2_o21ai_1
XFILLER_42_229 VDD VSS sg13g2_decap_8
XFILLER_23_454 VDD VSS sg13g2_decap_8
XFILLER_10_115 VDD VSS sg13g2_decap_8
XFILLER_12_88 VDD VSS sg13g2_fill_2
XFILLER_88_59 VDD VSS sg13g2_decap_8
XFILLER_104_253 VDD VSS sg13g2_decap_8
XFILLER_105_798 VDD VSS sg13g2_decap_8
XFILLER_104_286 VDD VSS sg13g2_fill_1
XFILLER_59_874 VDD VSS sg13g2_decap_8
XFILLER_77_159 VDD VSS sg13g2_decap_8
XFILLER_74_811 VDD VSS sg13g2_fill_2
XFILLER_86_682 VDD VSS sg13g2_decap_8
XFILLER_18_259 VDD VSS sg13g2_fill_1
XFILLER_37_63 VDD VSS sg13g2_decap_8
XFILLER_15_922 VDD VSS sg13g2_decap_4
XFILLER_61_505 VDD VSS sg13g2_decap_8
XFILLER_14_432 VDD VSS sg13g2_decap_8
XFILLER_42_741 VDD VSS sg13g2_decap_4