*SPEF "ieee 1481-1999"
*DESIGN "ir_recorder_replay_chip_top"
*DATE "12:43:20 Tuesday February 17, 2026"
*VENDOR "The OpenROAD Project"
*PROGRAM "OpenROAD"
*VERSION "dfc4f595dfb2e1c346492ff1f0274abb28725acf"
*DESIGN_FLOW "NAME_SCOPE LOCAL" "PIN_CAP NONE"
*DIVIDER /
*DELIMITER :
*BUS_DELIMITER []
*T_UNIT 1 NS
*C_UNIT 1 PF
*R_UNIT 1 OHM
*L_UNIT 1 HENRY

*NAME_MAP
*3 busy
*4 clk
*5 error
*6 ir_in
*7 ir_tx_npn_drive
*8 ld0
*9 ld1
*10 ld2
*11 ld3
*12 ld4
*13 ld5
*14 ld6
*15 ld7
*16 rec_done
*17 record_req
*18 rep_done
*19 replay_req
*20 rst_n
*21 slot_sel[0]
*22 slot_sel[1]
*23 slot_sel[2]
*24 uart_tx
*25 _0000_
*26 _0001_
*27 _0002_
*28 _0003_
*29 _0004_
*30 _0005_
*31 _0006_
*32 _0007_
*33 _0008_
*34 _0009_
*35 _0010_
*36 _0011_
*37 _0012_
*38 _0013_
*39 _0014_
*40 _0015_
*41 _0016_
*42 _0017_
*43 _0018_
*44 _0019_
*45 _0020_
*46 _0021_
*47 _0022_
*48 _0023_
*49 _0024_
*50 _0025_
*51 _0026_
*52 _0027_
*53 _0028_
*54 _0029_
*55 _0030_
*56 _0031_
*57 _0032_
*58 _0033_
*59 _0034_
*60 _0035_
*61 _0036_
*62 _0037_
*63 _0038_
*64 _0039_
*65 _0040_
*66 _0041_
*67 _0042_
*68 _0043_
*69 _0044_
*70 _0045_
*71 _0046_
*72 _0047_
*73 _0048_
*74 _0049_
*75 _0050_
*76 _0051_
*77 _0052_
*78 _0053_
*79 _0054_
*80 _0055_
*81 _0056_
*82 _0057_
*83 _0058_
*84 _0059_
*85 _0060_
*86 _0061_
*87 _0062_
*88 _0063_
*89 _0064_
*90 _0065_
*91 _0066_
*92 _0067_
*93 _0068_
*94 _0069_
*95 _0070_
*96 _0071_
*97 _0072_
*98 _0073_
*99 _0074_
*100 _0075_
*101 _0076_
*102 _0077_
*103 _0078_
*104 _0079_
*105 _0080_
*106 _0081_
*107 _0082_
*108 _0083_
*109 _0084_
*110 _0085_
*111 _0086_
*112 _0087_
*113 _0088_
*114 _0089_
*115 _0090_
*116 _0091_
*117 _0092_
*118 _0093_
*119 _0094_
*120 _0095_
*121 _0096_
*122 _0097_
*123 _0098_
*124 _0099_
*125 _0100_
*126 _0101_
*127 _0102_
*128 _0103_
*129 _0104_
*130 _0105_
*131 _0106_
*132 _0107_
*133 _0108_
*134 _0109_
*135 _0110_
*136 _0111_
*137 _0112_
*138 _0113_
*139 _0114_
*140 _0115_
*141 _0116_
*142 _0117_
*143 _0118_
*144 _0119_
*145 _0120_
*146 _0121_
*147 _0122_
*148 _0123_
*149 _0124_
*150 _0125_
*151 _0126_
*152 _0127_
*153 _0128_
*154 _0129_
*155 _0130_
*156 _0131_
*157 _0132_
*158 _0133_
*159 _0134_
*160 _0135_
*161 _0136_
*162 _0137_
*163 _0138_
*164 _0139_
*165 _0140_
*166 _0141_
*167 _0142_
*168 _0143_
*169 _0144_
*170 _0145_
*171 _0146_
*172 _0147_
*173 _0148_
*174 _0149_
*175 _0150_
*176 _0151_
*177 _0152_
*178 _0153_
*179 _0154_
*180 _0155_
*181 _0156_
*182 _0157_
*183 _0158_
*184 _0159_
*185 _0160_
*186 _0161_
*187 _0162_
*188 _0163_
*189 _0164_
*190 _0165_
*191 _0166_
*192 _0167_
*193 _0168_
*194 _0169_
*195 _0170_
*196 _0171_
*197 _0172_
*198 _0173_
*199 _0174_
*200 _0175_
*201 _0176_
*202 _0177_
*203 _0178_
*204 _0179_
*205 _0180_
*206 _0181_
*207 _0182_
*208 _0183_
*209 _0184_
*210 _0185_
*211 _0186_
*212 _0187_
*213 _0188_
*214 _0189_
*215 _0190_
*216 _0191_
*217 _0192_
*218 _0193_
*219 _0194_
*220 _0195_
*221 _0196_
*222 _0197_
*223 _0198_
*224 _0199_
*225 _0200_
*226 _0201_
*227 _0202_
*228 _0203_
*229 _0204_
*230 _0205_
*231 _0206_
*232 _0207_
*233 _0208_
*234 _0209_
*235 _0210_
*236 _0211_
*237 _0212_
*238 _0213_
*239 _0214_
*240 _0215_
*241 _0216_
*242 _0217_
*243 _0218_
*244 _0219_
*245 _0220_
*246 _0221_
*247 _0222_
*248 _0223_
*249 _0224_
*250 _0225_
*251 _0226_
*252 _0227_
*253 _0228_
*254 _0229_
*255 _0230_
*256 _0231_
*257 _0232_
*258 _0233_
*259 _0234_
*260 _0235_
*261 _0236_
*262 _0237_
*263 _0238_
*264 _0239_
*265 _0240_
*266 _0241_
*267 _0242_
*268 _0243_
*269 _0244_
*270 _0245_
*271 _0246_
*272 _0247_
*273 _0248_
*274 _0249_
*275 _0250_
*276 _0251_
*277 _0252_
*278 _0253_
*279 _0254_
*280 _0255_
*281 _0256_
*282 _0257_
*283 _0258_
*284 _0259_
*285 _0260_
*286 _0261_
*287 _0262_
*288 _0263_
*289 _0264_
*290 _0265_
*291 _0266_
*292 _0267_
*293 _0268_
*294 _0269_
*295 _0270_
*296 _0271_
*297 _0272_
*298 _0273_
*299 _0274_
*300 _0275_
*301 _0276_
*302 _0277_
*303 _0278_
*304 _0279_
*305 _0280_
*306 _0281_
*307 _0282_
*308 _0283_
*309 _0284_
*310 _0285_
*311 _0286_
*312 _0287_
*313 _0288_
*314 _0289_
*315 _0290_
*316 _0291_
*317 _0292_
*318 _0293_
*319 _0294_
*320 _0295_
*321 _0296_
*322 _0297_
*323 _0298_
*324 _0299_
*325 _0300_
*326 _0301_
*327 _0302_
*328 _0303_
*329 _0304_
*330 _0305_
*331 _0306_
*332 _0307_
*333 _0308_
*334 _0309_
*335 _0310_
*336 _0311_
*337 _0312_
*338 _0313_
*339 _0314_
*340 _0315_
*341 _0316_
*342 _0317_
*343 _0318_
*344 _0319_
*345 _0320_
*346 _0321_
*347 _0322_
*348 _0323_
*349 _0324_
*350 _0325_
*351 _0326_
*352 _0327_
*353 _0328_
*354 _0329_
*355 _0330_
*356 _0331_
*357 _0332_
*358 _0333_
*359 _0334_
*360 _0335_
*361 _0336_
*362 _0337_
*363 _0338_
*364 _0339_
*365 _0340_
*366 _0341_
*367 _0342_
*368 _0343_
*369 _0344_
*370 _0345_
*371 _0346_
*372 _0347_
*373 _0348_
*374 _0349_
*375 _0350_
*376 _0351_
*377 _0352_
*378 _0353_
*379 _0354_
*380 _0355_
*381 _0356_
*382 _0357_
*383 _0358_
*384 _0359_
*385 _0360_
*386 _0361_
*387 _0362_
*388 _0363_
*389 _0364_
*390 _0365_
*391 _0366_
*392 _0367_
*393 _0368_
*394 _0369_
*395 _0370_
*396 _0371_
*397 _0372_
*398 _0373_
*399 _0374_
*400 _0375_
*401 _0376_
*402 _0377_
*403 _0378_
*404 _0379_
*405 _0380_
*406 _0381_
*407 _0382_
*408 _0383_
*409 _0384_
*410 _0385_
*411 _0386_
*412 _0387_
*413 _0388_
*414 _0389_
*415 _0390_
*416 _0391_
*417 _0392_
*418 _0393_
*419 _0394_
*420 _0395_
*421 _0396_
*422 _0397_
*423 _0398_
*424 _0399_
*425 _0400_
*426 _0401_
*427 _0402_
*428 _0403_
*429 _0404_
*430 _0405_
*431 _0406_
*432 _0407_
*433 _0408_
*434 _0409_
*435 _0410_
*436 _0411_
*437 _0412_
*438 _0413_
*439 _0414_
*440 _0415_
*441 _0416_
*442 _0417_
*443 _0418_
*444 _0419_
*445 _0420_
*446 _0421_
*447 _0422_
*448 _0423_
*449 _0424_
*450 _0425_
*451 _0426_
*452 _0427_
*453 _0428_
*454 _0429_
*455 _0430_
*456 _0431_
*457 _0432_
*458 _0433_
*459 _0434_
*460 _0435_
*461 _0436_
*462 _0437_
*463 _0438_
*464 _0439_
*465 _0440_
*466 _0441_
*467 _0442_
*468 _0443_
*469 _0444_
*470 _0445_
*471 _0446_
*472 _0447_
*473 _0448_
*474 _0449_
*475 _0450_
*476 _0451_
*477 _0452_
*478 _0453_
*479 _0454_
*480 _0455_
*481 _0456_
*482 _0457_
*483 _0458_
*484 _0459_
*485 _0460_
*486 _0461_
*487 _0462_
*488 _0463_
*489 _0464_
*490 _0465_
*491 _0466_
*492 _0467_
*493 _0468_
*494 _0469_
*495 _0470_
*496 _0471_
*497 _0472_
*498 _0473_
*499 _0474_
*500 _0475_
*501 _0476_
*502 _0477_
*503 _0478_
*504 _0479_
*505 _0480_
*506 _0481_
*507 _0482_
*508 _0483_
*509 _0484_
*510 _0485_
*511 _0486_
*512 _0487_
*513 _0488_
*514 _0489_
*515 _0490_
*516 _0491_
*517 _0492_
*518 _0493_
*519 _0494_
*520 _0495_
*521 _0496_
*522 _0497_
*523 _0498_
*524 _0499_
*525 _0500_
*526 _0501_
*527 _0502_
*528 _0503_
*529 _0504_
*530 _0505_
*531 _0506_
*532 _0507_
*533 _0508_
*534 _0509_
*535 _0510_
*536 _0511_
*537 _0512_
*538 _0513_
*539 _0514_
*540 _0515_
*541 _0516_
*542 _0517_
*543 _0518_
*544 _0519_
*545 _0520_
*546 _0521_
*547 _0522_
*548 _0523_
*549 _0524_
*550 _0525_
*551 _0526_
*552 _0527_
*553 _0528_
*554 _0529_
*555 _0530_
*556 _0531_
*557 _0532_
*558 _0533_
*559 _0534_
*560 _0535_
*561 _0536_
*562 _0537_
*563 _0538_
*564 _0539_
*565 _0540_
*566 _0541_
*567 _0542_
*568 _0543_
*569 _0544_
*570 _0545_
*571 _0546_
*572 _0547_
*573 _0548_
*574 _0549_
*575 _0550_
*576 _0551_
*577 _0552_
*578 _0553_
*579 _0554_
*580 _0555_
*581 _0556_
*582 _0557_
*583 _0558_
*584 _0559_
*585 _0560_
*586 _0561_
*587 _0562_
*588 _0563_
*589 _0564_
*590 _0565_
*591 _0566_
*592 _0567_
*593 _0568_
*594 _0569_
*595 _0570_
*596 _0571_
*597 _0572_
*598 _0573_
*599 _0574_
*600 _0575_
*601 _0576_
*602 _0577_
*603 _0578_
*604 _0579_
*605 _0580_
*606 _0581_
*607 _0582_
*608 _0583_
*609 _0584_
*610 _0585_
*611 _0586_
*612 _0587_
*613 _0588_
*614 _0589_
*615 _0590_
*616 _0591_
*617 _0592_
*618 _0593_
*619 _0594_
*620 _0595_
*621 _0596_
*622 _0597_
*623 _0598_
*624 _0599_
*625 _0600_
*626 _0601_
*627 _0602_
*628 _0603_
*629 _0604_
*630 _0605_
*631 _0606_
*632 _0607_
*633 _0608_
*634 _0609_
*635 _0610_
*636 _0611_
*637 _0612_
*638 _0613_
*639 _0614_
*640 _0615_
*641 _0616_
*642 _0617_
*643 _0618_
*644 _0619_
*645 _0620_
*646 _0621_
*647 _0622_
*648 _0623_
*649 _0624_
*650 _0625_
*651 _0626_
*652 _0627_
*653 _0628_
*654 _0629_
*655 _0630_
*656 _0631_
*657 _0632_
*658 _0633_
*659 _0634_
*660 _0635_
*661 _0636_
*662 _0637_
*663 _0638_
*664 _0639_
*665 _0640_
*666 _0641_
*667 _0642_
*668 _0643_
*669 _0644_
*670 _0645_
*671 _0646_
*672 _0647_
*673 _0648_
*674 _0649_
*675 _0650_
*676 _0651_
*677 _0652_
*678 _0653_
*679 _0654_
*680 _0655_
*681 _0656_
*682 _0657_
*683 _0658_
*684 _0659_
*685 _0660_
*686 _0661_
*687 _0662_
*688 _0663_
*689 _0664_
*690 _0665_
*691 _0666_
*692 _0667_
*693 _0668_
*694 _0669_
*695 _0670_
*696 _0671_
*697 _0672_
*698 _0673_
*699 _0674_
*700 _0675_
*701 _0676_
*702 _0677_
*703 _0678_
*704 _0679_
*705 _0680_
*706 _0681_
*707 _0682_
*708 _0683_
*709 _0684_
*710 _0685_
*711 _0686_
*712 _0687_
*713 _0688_
*714 _0689_
*715 _0690_
*716 _0691_
*717 _0692_
*718 _0693_
*719 _0694_
*720 _0695_
*721 _0696_
*722 _0697_
*723 _0698_
*724 _0699_
*725 _0700_
*726 _0701_
*727 _0702_
*728 _0703_
*729 _0704_
*730 _0705_
*731 _0706_
*732 _0707_
*733 _0708_
*734 _0709_
*735 _0710_
*736 _0711_
*737 _0712_
*738 _0713_
*739 _0714_
*740 _0715_
*741 _0716_
*742 _0717_
*743 _0718_
*744 _0719_
*745 _0720_
*746 _0721_
*747 _0722_
*748 _0723_
*749 _0724_
*750 _0725_
*751 _0726_
*752 _0727_
*753 _0728_
*754 _0729_
*755 _0730_
*756 _0731_
*757 _0732_
*758 _0733_
*759 _0734_
*760 _0735_
*761 _0736_
*762 _0737_
*763 _0738_
*764 _0739_
*765 _0740_
*766 _0741_
*767 _0742_
*768 _0743_
*769 _0744_
*770 _0745_
*771 _0746_
*772 _0747_
*773 _0748_
*774 _0749_
*775 _0750_
*776 _0751_
*777 _0752_
*778 _0753_
*779 _0754_
*780 _0755_
*781 _0756_
*782 _0757_
*783 _0758_
*784 _0759_
*785 _0760_
*786 _0761_
*787 _0762_
*788 _0763_
*789 _0764_
*790 _0765_
*791 _0766_
*792 _0767_
*793 _0768_
*794 _0769_
*795 _0770_
*796 _0771_
*797 _0772_
*798 _0773_
*799 _0774_
*800 _0775_
*801 _0776_
*802 _0777_
*803 _0778_
*804 _0779_
*805 _0780_
*806 _0781_
*807 _0782_
*808 _0783_
*809 _0784_
*810 _0785_
*811 _0786_
*812 _0787_
*813 _0788_
*814 _0789_
*815 _0790_
*816 _0791_
*817 _0792_
*818 _0793_
*819 _0794_
*820 _0795_
*821 _0796_
*822 _0797_
*823 _0798_
*824 _0799_
*825 _0800_
*826 _0801_
*827 _0802_
*828 _0803_
*829 _0804_
*830 _0805_
*831 _0806_
*832 _0807_
*833 _0808_
*834 _0809_
*835 _0810_
*836 _0811_
*837 _0812_
*838 _0813_
*839 _0814_
*840 _0815_
*841 _0816_
*842 _0817_
*843 _0818_
*844 _0819_
*845 _0820_
*846 _0821_
*847 _0822_
*848 _0823_
*849 _0824_
*850 _0825_
*851 _0826_
*852 _0827_
*853 _0828_
*854 _0829_
*855 _0830_
*856 _0831_
*857 _0832_
*858 _0833_
*859 _0834_
*860 _0835_
*861 _0836_
*862 _0837_
*863 _0838_
*864 _0839_
*865 _0840_
*866 _0841_
*867 _0842_
*868 _0843_
*869 _0844_
*870 _0845_
*871 _0846_
*872 _0847_
*873 _0848_
*874 _0849_
*875 _0850_
*876 _0851_
*877 _0852_
*878 _0853_
*879 _0854_
*880 _0855_
*881 _0856_
*882 _0857_
*883 _0858_
*884 _0859_
*885 _0860_
*886 _0861_
*887 _0862_
*888 _0863_
*889 _0864_
*890 _0865_
*891 _0866_
*892 _0867_
*893 _0868_
*894 _0869_
*895 _0870_
*896 _0871_
*897 _0872_
*898 _0873_
*899 _0874_
*900 _0875_
*901 _0876_
*902 _0877_
*903 _0878_
*904 _0879_
*905 _0880_
*906 _0881_
*907 _0882_
*908 _0883_
*909 _0884_
*910 _0885_
*911 _0886_
*912 _0887_
*913 _0888_
*914 _0889_
*915 _0890_
*916 _0891_
*917 _0892_
*918 _0893_
*919 _0894_
*920 _0895_
*921 _0896_
*922 _0897_
*923 _0898_
*924 _0899_
*925 _0900_
*926 _0901_
*927 _0902_
*928 _0903_
*929 _0904_
*930 _0905_
*931 _0906_
*932 _0907_
*933 _0908_
*934 _0909_
*935 _0910_
*936 _0911_
*937 _0912_
*938 _0913_
*939 _0914_
*940 _0915_
*941 _0916_
*942 _0917_
*943 _0918_
*944 _0919_
*945 _0920_
*946 _0921_
*947 _0922_
*948 _0923_
*949 _0924_
*950 _0925_
*951 _0926_
*952 _0927_
*953 _0928_
*954 _0929_
*955 _0930_
*956 _0931_
*957 _0932_
*958 _0933_
*959 _0934_
*960 _0935_
*961 _0936_
*962 _0937_
*963 _0938_
*964 _0939_
*965 _0940_
*966 _0941_
*967 _0942_
*968 _0943_
*969 _0944_
*970 _0945_
*971 _0946_
*972 _0947_
*973 _0948_
*974 _0949_
*975 _0950_
*976 _0951_
*977 _0952_
*978 _0953_
*979 _0954_
*980 _0955_
*981 _0956_
*982 _0957_
*983 _0958_
*984 _0959_
*985 _0960_
*986 _0961_
*987 _0962_
*988 _0963_
*989 _0964_
*990 _0965_
*991 _0966_
*992 _0967_
*993 _0968_
*994 _0969_
*995 _0970_
*996 _0971_
*997 _0972_
*998 _0973_
*999 _0974_
*1000 _0975_
*1001 _0976_
*1002 _0977_
*1003 _0978_
*1004 _0979_
*1005 _0980_
*1006 _0981_
*1007 _0982_
*1008 _0983_
*1009 _0984_
*1010 _0985_
*1011 _0986_
*1012 _0987_
*1013 _0988_
*1014 _0989_
*1015 _0990_
*1016 _0991_
*1017 _0992_
*1018 _0993_
*1019 _0994_
*1020 _0995_
*1021 _0996_
*1022 _0997_
*1023 _0998_
*1024 _0999_
*1025 _1000_
*1026 _1001_
*1027 _1002_
*1028 _1003_
*1029 _1004_
*1030 _1005_
*1031 _1006_
*1032 _1007_
*1033 _1008_
*1034 _1009_
*1035 _1010_
*1036 _1011_
*1037 _1012_
*1038 _1013_
*1039 _1014_
*1040 _1015_
*1041 _1016_
*1042 _1017_
*1043 _1018_
*1044 _1019_
*1045 _1020_
*1046 _1021_
*1047 _1022_
*1048 _1023_
*1049 _1024_
*1050 _1025_
*1051 _1026_
*1052 _1027_
*1053 _1028_
*1054 _1029_
*1055 _1030_
*1056 _1031_
*1057 _1032_
*1058 _1033_
*1059 _1034_
*1060 _1035_
*1061 _1036_
*1062 _1037_
*1063 _1038_
*1064 _1039_
*1065 _1040_
*1066 _1041_
*1067 _1042_
*1068 _1043_
*1069 _1044_
*1070 _1045_
*1071 _1046_
*1072 _1047_
*1073 _1048_
*1074 _1049_
*1075 _1050_
*1076 _1051_
*1077 _1052_
*1078 _1053_
*1079 _1054_
*1080 _1055_
*1081 _1056_
*1082 _1057_
*1083 _1058_
*1084 _1059_
*1085 _1060_
*1086 _1061_
*1087 _1062_
*1088 _1063_
*1089 _1064_
*1090 _1065_
*1091 _1066_
*1092 _1067_
*1093 _1068_
*1094 _1069_
*1095 _1070_
*1096 _1071_
*1097 _1072_
*1098 _1073_
*1099 _1074_
*1100 _1075_
*1101 _1076_
*1102 _1077_
*1103 _1078_
*1104 _1079_
*1105 _1080_
*1106 _1081_
*1107 _1082_
*1108 _1083_
*1109 _1084_
*1110 _1085_
*1111 _1086_
*1112 _1087_
*1113 _1088_
*1114 _1089_
*1115 _1090_
*1116 _1091_
*1117 _1092_
*1118 _1093_
*1119 _1094_
*1120 _1095_
*1121 _1096_
*1122 _1097_
*1123 _1098_
*1124 _1099_
*1125 _1100_
*1126 _1101_
*1127 _1102_
*1128 _1103_
*1129 _1104_
*1130 _1105_
*1131 _1106_
*1132 _1107_
*1133 _1108_
*1134 _1109_
*1135 _1110_
*1136 _1111_
*1137 _1112_
*1138 _1113_
*1139 _1114_
*1140 _1115_
*1141 _1116_
*1142 _1117_
*1143 _1118_
*1144 _1119_
*1145 _1120_
*1146 _1121_
*1147 _1122_
*1148 _1123_
*1149 _1124_
*1150 _1125_
*1151 _1126_
*1152 _1127_
*1153 _1128_
*1154 _1129_
*1155 _1130_
*1156 _1131_
*1157 _1132_
*1158 _1133_
*1159 _1134_
*1160 _1135_
*1161 _1136_
*1162 _1137_
*1163 _1138_
*1164 _1139_
*1165 _1140_
*1166 _1141_
*1167 _1142_
*1168 _1143_
*1169 _1144_
*1170 _1145_
*1171 _1146_
*1172 _1147_
*1173 _1148_
*1174 _1149_
*1175 _1150_
*1176 _1151_
*1177 _1152_
*1178 _1153_
*1179 _1154_
*1180 _1155_
*1181 _1156_
*1182 _1157_
*1183 _1158_
*1184 _1159_
*1185 _1160_
*1186 _1161_
*1187 _1162_
*1188 _1163_
*1189 _1164_
*1190 _1165_
*1191 _1166_
*1192 _1167_
*1193 _1168_
*1194 _1169_
*1195 _1170_
*1196 _1171_
*1197 _1172_
*1198 _1173_
*1199 _1174_
*1200 _1175_
*1201 _1176_
*1202 _1177_
*1203 _1178_
*1204 _1179_
*1205 _1180_
*1206 _1181_
*1207 _1182_
*1208 _1183_
*1209 _1184_
*1210 _1185_
*1211 _1186_
*1212 _1187_
*1213 _1188_
*1214 _1189_
*1215 _1190_
*1216 _1191_
*1217 _1192_
*1218 _1193_
*1219 _1194_
*1220 _1195_
*1221 _1196_
*1222 _1197_
*1223 _1198_
*1224 _1199_
*1225 _1200_
*1226 _1201_
*1227 _1202_
*1228 _1203_
*1229 _1204_
*1230 _1205_
*1231 _1206_
*1232 _1207_
*1233 _1208_
*1234 _1209_
*1235 _1210_
*1236 _1211_
*1237 _1212_
*1238 _1213_
*1239 _1214_
*1240 _1215_
*1241 _1216_
*1242 _1217_
*1243 _1218_
*1244 _1219_
*1245 _1220_
*1246 _1221_
*1247 _1222_
*1248 _1223_
*1249 _1224_
*1250 _1225_
*1251 _1226_
*1252 _1227_
*1253 _1228_
*1254 _1229_
*1255 _1230_
*1256 _1231_
*1257 _1232_
*1258 _1233_
*1259 _1234_
*1260 _1235_
*1261 _1236_
*1262 _1237_
*1263 _1238_
*1264 _1239_
*1265 _1240_
*1266 _1241_
*1267 _1242_
*1268 _1243_
*1269 _1244_
*1270 _1245_
*1271 _1246_
*1272 _1247_
*1273 _1248_
*1274 _1249_
*1275 _1250_
*1276 _1251_
*1277 _1252_
*1278 _1253_
*1279 _1254_
*1280 _1255_
*1281 _1256_
*1282 _1257_
*1283 _1258_
*1284 _1259_
*1285 _1260_
*1286 _1261_
*1287 _1262_
*1288 _1263_
*1289 _1264_
*1290 _1265_
*1291 _1266_
*1292 _1267_
*1293 _1268_
*1294 _1269_
*1295 _1270_
*1296 _1271_
*1297 _1272_
*1298 _1273_
*1299 _1274_
*1300 _1275_
*1301 _1276_
*1302 _1277_
*1303 _1278_
*1304 _1279_
*1305 _1280_
*1306 _1281_
*1307 _1282_
*1308 _1283_
*1309 _1284_
*1310 _1285_
*1311 _1286_
*1312 _1287_
*1313 _1288_
*1314 _1289_
*1315 _1290_
*1316 _1291_
*1317 _1292_
*1318 _1293_
*1319 _1294_
*1320 _1295_
*1321 _1296_
*1322 _1297_
*1323 _1298_
*1324 _1299_
*1325 _1300_
*1326 _1301_
*1327 _1302_
*1328 _1303_
*1329 _1304_
*1330 _1305_
*1331 _1306_
*1332 _1307_
*1333 _1308_
*1334 _1309_
*1335 _1310_
*1336 _1311_
*1337 _1312_
*1338 _1313_
*1339 _1314_
*1340 _1315_
*1341 _1316_
*1342 _1317_
*1343 _1318_
*1344 _1319_
*1345 _1320_
*1346 _1321_
*1347 _1322_
*1348 _1323_
*1349 _1324_
*1350 _1325_
*1351 _1326_
*1352 _1327_
*1353 _1328_
*1354 _1329_
*1355 _1330_
*1356 _1331_
*1357 _1332_
*1358 _1333_
*1359 _1334_
*1360 _1335_
*1361 _1336_
*1362 _1337_
*1363 _1338_
*1364 _1339_
*1365 _1340_
*1366 _1341_
*1367 _1342_
*1368 _1343_
*1369 _1344_
*1370 _1345_
*1371 _1346_
*1372 _1347_
*1373 _1348_
*1374 _1349_
*1375 _1350_
*1376 _1351_
*1377 _1352_
*1378 _1353_
*1379 _1354_
*1380 _1355_
*1381 _1356_
*1382 _1357_
*1383 _1358_
*1384 _1359_
*1385 _1360_
*1386 _1361_
*1387 _1362_
*1388 _1363_
*1389 _1364_
*1390 _1365_
*1391 _1366_
*1392 _1367_
*1393 _1368_
*1394 _1369_
*1395 _1370_
*1396 _1371_
*1397 _1372_
*1398 _1373_
*1399 _1374_
*1400 _1375_
*1401 _1376_
*1402 _1377_
*1403 _1378_
*1404 _1379_
*1405 _1380_
*1406 _1381_
*1407 _1382_
*1408 _1383_
*1409 _1384_
*1410 _1385_
*1411 _1386_
*1412 _1387_
*1413 _1388_
*1414 _1389_
*1415 _1390_
*1416 _1391_
*1417 _1392_
*1418 _1393_
*1419 _1394_
*1420 _1395_
*1421 _1396_
*1422 _1397_
*1423 _1398_
*1424 _1399_
*1425 _1400_
*1426 _1401_
*1427 _1402_
*1428 _1403_
*1429 _1404_
*1430 _1405_
*1431 _1406_
*1432 _1407_
*1433 _1408_
*1434 _1409_
*1435 _1410_
*1436 _1411_
*1437 _1412_
*1438 _1413_
*1439 _1414_
*1440 _1415_
*1441 _1416_
*1442 _1417_
*1443 _1418_
*1444 _1419_
*1445 _1420_
*1446 _1421_
*1447 _1422_
*1448 _1423_
*1449 _1424_
*1450 _1425_
*1451 _1426_
*1452 _1427_
*1453 _1428_
*1454 _1429_
*1455 _1430_
*1456 _1431_
*1457 _1432_
*1458 _1433_
*1459 _1434_
*1460 _1435_
*1461 _1436_
*1462 _1437_
*1463 _1438_
*1464 _1439_
*1465 _1440_
*1466 _1441_
*1467 _1442_
*1468 _1443_
*1469 _1444_
*1470 _1445_
*1471 _1446_
*1472 _1447_
*1473 _1448_
*1474 _1449_
*1475 _1450_
*1476 _1451_
*1477 _1452_
*1478 _1453_
*1479 _1454_
*1480 _1455_
*1481 _1456_
*1482 _1457_
*1483 _1458_
*1484 _1459_
*1485 _1460_
*1486 _1461_
*1487 _1462_
*1488 _1463_
*1489 _1464_
*1490 _1465_
*1491 _1466_
*1492 _1467_
*1493 _1468_
*1494 _1469_
*1495 _1470_
*1496 _1471_
*1497 _1472_
*1498 _1473_
*1499 _1474_
*1500 _1475_
*1501 _1476_
*1502 _1477_
*1503 _1478_
*1504 _1479_
*1505 _1480_
*1506 _1481_
*1507 _1482_
*1508 _1483_
*1509 _1484_
*1510 _1485_
*1511 _1486_
*1512 _1487_
*1513 _1488_
*1514 _1489_
*1515 _1490_
*1516 _1491_
*1517 _1492_
*1518 _1493_
*1519 _1494_
*1520 _1495_
*1521 _1496_
*1522 _1497_
*1523 _1498_
*1524 _1499_
*1525 _1500_
*1526 _1501_
*1527 _1502_
*1528 _1503_
*1529 _1504_
*1530 _1505_
*1531 _1506_
*1532 _1507_
*1533 _1508_
*1534 _1509_
*1535 _1510_
*1536 _1511_
*1537 _1512_
*1538 _1513_
*1539 _1514_
*1540 _1515_
*1541 _1516_
*1542 _1517_
*1543 _1518_
*1544 _1519_
*1545 _1520_
*1546 _1521_
*1547 _1522_
*1548 _1523_
*1549 _1524_
*1550 _1525_
*1551 _1526_
*1552 _1527_
*1553 _1528_
*1554 _1529_
*1555 _1530_
*1556 _1531_
*1557 _1532_
*1558 _1533_
*1559 _1534_
*1560 _1535_
*1561 _1536_
*1562 _1537_
*1563 _1538_
*1564 _1539_
*1565 _1540_
*1566 _1541_
*1567 _1542_
*1568 _1543_
*1569 _1544_
*1570 _1545_
*1571 _1546_
*1572 _1547_
*1573 _1548_
*1574 _1549_
*1575 _1550_
*1576 _1551_
*1577 _1552_
*1578 _1553_
*1579 _1554_
*1580 _1555_
*1581 _1556_
*1582 _1557_
*1583 _1558_
*1584 _1559_
*1585 _1560_
*1586 _1561_
*1587 _1562_
*1588 _1563_
*1589 _1564_
*1590 _1565_
*1591 _1566_
*1592 _1567_
*1593 _1568_
*1594 _1569_
*1595 _1570_
*1596 _1571_
*1597 _1572_
*1598 _1573_
*1599 _1574_
*1600 _1575_
*1601 _1576_
*1602 _1577_
*1603 _1578_
*1604 _1579_
*1605 _1580_
*1606 _1581_
*1607 _1582_
*1608 _1583_
*1609 _1584_
*1610 _1585_
*1611 _1586_
*1612 _1587_
*1613 _1588_
*1614 _1589_
*1615 _1590_
*1616 _1591_
*1617 _1592_
*1618 _1593_
*1619 _1594_
*1620 _1595_
*1621 _1596_
*1622 _1597_
*1623 _1598_
*1624 _1599_
*1625 _1600_
*1626 _1601_
*1627 _1602_
*1628 _1603_
*1629 _1604_
*1630 _1605_
*1631 _1606_
*1632 _1607_
*1633 _1608_
*1634 _1609_
*1635 _1610_
*1636 _1611_
*1637 _1612_
*1638 _1613_
*1639 _1614_
*1640 _1615_
*1641 _1616_
*1642 _1617_
*1643 _1618_
*1644 _1619_
*1645 _1620_
*1646 _1621_
*1647 _1622_
*1648 _1623_
*1649 _1624_
*1650 _1625_
*1651 _1626_
*1652 _1627_
*1653 _1628_
*1654 _1629_
*1655 _1630_
*1656 _1631_
*1657 _1632_
*1658 _1633_
*1659 _1634_
*1660 _1635_
*1661 _1636_
*1662 _1637_
*1663 _1638_
*1664 _1639_
*1665 _1640_
*1666 _1641_
*1667 _1642_
*1668 _1643_
*1669 _1644_
*1670 _1645_
*1671 _1646_
*1672 _1647_
*1673 _1648_
*1674 _1649_
*1675 _1650_
*1676 _1651_
*1677 _1652_
*1678 _1653_
*1679 _1654_
*1680 _1655_
*1681 _1656_
*1682 _1657_
*1683 _1658_
*1684 _1659_
*1685 _1660_
*1686 _1661_
*1687 _1662_
*1688 _1663_
*1689 _1664_
*1690 _1665_
*1691 _1666_
*1692 _1667_
*1693 _1668_
*1694 _1669_
*1695 _1670_
*1696 _1671_
*1697 _1672_
*1698 _1673_
*1699 _1674_
*1700 _1675_
*1701 _1676_
*1702 _1677_
*1703 _1678_
*1704 _1679_
*1705 _1680_
*1706 _1681_
*1707 _1682_
*1708 _1683_
*1709 _1684_
*1710 _1685_
*1711 _1686_
*1712 _1687_
*1713 _1688_
*1714 _1689_
*1715 _1690_
*1716 _1691_
*1717 _1692_
*1718 _1693_
*1719 _1694_
*1720 _1695_
*1721 _1696_
*1722 _1697_
*1723 _1698_
*1724 _1699_
*1725 _1700_
*1726 _1701_
*1727 _1702_
*1728 _1703_
*1729 _1704_
*1730 _1705_
*1731 _1706_
*1732 _1707_
*1733 _1708_
*1734 _1709_
*1735 _1710_
*1736 _1711_
*1737 _1712_
*1738 _1713_
*1739 _1714_
*1740 _1715_
*1741 _1716_
*1742 _1717_
*1743 _1718_
*1744 _1719_
*1745 _1720_
*1746 _1721_
*1747 _1722_
*1748 _1723_
*1749 _1724_
*1750 _1725_
*1751 _1726_
*1752 _1727_
*1753 _1728_
*1754 _1729_
*1755 _1730_
*1756 _1731_
*1757 _1732_
*1758 _1733_
*1759 _1734_
*1760 _1735_
*1761 _1736_
*1762 _1737_
*1763 _1738_
*1764 _1739_
*1765 _1740_
*1766 _1741_
*1767 _1742_
*1768 _1743_
*1769 _1744_
*1770 _1745_
*1771 _1746_
*1772 _1747_
*1773 _1748_
*1774 _1749_
*1775 _1750_
*1776 _1751_
*1777 _1752_
*1778 _1753_
*1779 _1754_
*1780 _1755_
*1781 _1756_
*1782 _1757_
*1783 _1758_
*1784 _1759_
*1785 _1760_
*1786 _1761_
*1787 _1762_
*1788 _1763_
*1789 _1764_
*1790 _1765_
*1791 _1766_
*1792 _1767_
*1793 _1768_
*1794 _1769_
*1795 _1770_
*1796 _1771_
*1797 _1772_
*1798 _1773_
*1799 _1774_
*1800 _1775_
*1801 _1776_
*1802 _1777_
*1803 _1778_
*1804 _1779_
*1805 _1780_
*1806 _1781_
*1807 _1782_
*1808 _1783_
*1809 _1784_
*1810 _1785_
*1811 _1786_
*1812 _1787_
*1813 _1788_
*1814 _1789_
*1815 _1790_
*1816 _1791_
*1817 _1792_
*1818 _1793_
*1819 _1794_
*1820 _1795_
*1821 _1796_
*1822 _1797_
*1823 _1798_
*1824 _1799_
*1825 _1800_
*1826 _1801_
*1827 _1802_
*1828 _1803_
*1829 _1804_
*1830 _1805_
*1831 _1806_
*1832 _1807_
*1833 _1808_
*1834 _1809_
*1835 _1810_
*1836 _1811_
*1837 _1812_
*1838 _1813_
*1839 _1814_
*1840 _1815_
*1841 _1816_
*1842 _1817_
*1843 _1818_
*1844 _1819_
*1845 _1820_
*1846 _1821_
*1847 _1822_
*1848 _1823_
*1849 _1824_
*1850 _1825_
*1851 _1826_
*1852 _1827_
*1853 _1828_
*1854 _1829_
*1855 _1830_
*1856 _1831_
*1857 _1832_
*1858 _1833_
*1859 _1834_
*1860 _1835_
*1861 _1836_
*1862 _1837_
*1863 _1838_
*1864 _1839_
*1865 _1840_
*1866 _1841_
*1867 _1842_
*1868 _1843_
*1869 _1844_
*1870 _1845_
*1871 _1846_
*1872 _1847_
*1873 _1848_
*1874 _1849_
*1875 _1850_
*1876 _1851_
*1877 _1852_
*1878 _1853_
*1879 _1854_
*1880 _1855_
*1881 _1856_
*1882 _1857_
*1883 _1858_
*1884 _1859_
*1885 _1860_
*1886 _1861_
*1887 _1862_
*1888 _1863_
*1889 _1864_
*1890 _1865_
*1891 _1866_
*1892 _1867_
*1893 _1868_
*1894 _1869_
*1895 _1870_
*1896 _1871_
*1897 _1872_
*1898 _1873_
*1899 _1874_
*1900 _1875_
*1901 _1876_
*1902 _1877_
*1903 _1878_
*1904 _1879_
*1905 _1880_
*1906 _1881_
*1907 _1882_
*1908 _1883_
*1909 _1884_
*1910 _1885_
*1911 _1886_
*1912 _1887_
*1913 _1888_
*1914 _1889_
*1915 _1890_
*1916 _1891_
*1917 _1892_
*1918 _1893_
*1919 _1894_
*1920 _1895_
*1921 _1896_
*1922 _1897_
*1923 _1898_
*1924 _1899_
*1925 _1900_
*1926 _1901_
*1927 _1902_
*1928 _1903_
*1929 _1904_
*1930 _1905_
*1931 _1906_
*1932 _1907_
*1933 _1908_
*1934 _1909_
*1935 _1910_
*1936 _1911_
*1937 _1912_
*1938 _1913_
*1939 _1914_
*1940 _1915_
*1941 _1916_
*1942 _1917_
*1943 _1918_
*1944 _1919_
*1945 _1920_
*1946 _1921_
*1947 _1922_
*1948 _1923_
*1949 _1924_
*1950 _1925_
*1951 _1926_
*1952 _1927_
*1953 _1928_
*1954 _1929_
*1955 _1930_
*1956 _1931_
*1957 _1932_
*1958 _1933_
*1959 _1934_
*1960 _1935_
*1961 _1936_
*1962 _1937_
*1963 _1938_
*1964 _1939_
*1965 _1940_
*1966 _1941_
*1967 _1942_
*1968 _1943_
*1969 _1944_
*1970 _1945_
*1971 _1946_
*1972 _1947_
*1973 _1948_
*1974 _1949_
*1975 _1950_
*1976 _1951_
*1977 _1952_
*1978 _1953_
*1979 _1954_
*1980 _1955_
*1981 _1956_
*1982 _1957_
*1983 _1958_
*1984 _1959_
*1985 _1960_
*1986 _1961_
*1987 _1962_
*1988 _1963_
*1989 _1964_
*1990 _1965_
*1991 _1966_
*1992 _1967_
*1993 _1968_
*1994 _1969_
*1995 _1970_
*1996 _1971_
*1997 _1972_
*1998 _1973_
*1999 _1974_
*2000 _1975_
*2001 _1976_
*2002 _1977_
*2003 _1978_
*2004 _1979_
*2005 _1980_
*2006 _1981_
*2007 _1982_
*2008 _1983_
*2009 _1984_
*2010 _1985_
*2011 _1986_
*2012 _1987_
*2013 _1988_
*2014 _1989_
*2015 _1990_
*2016 _1991_
*2017 _1992_
*2018 _1993_
*2019 _1994_
*2020 _1995_
*2021 _1996_
*2022 _1997_
*2023 _1998_
*2024 _1999_
*2025 _2000_
*2026 _2001_
*2027 _2002_
*2028 _2003_
*2029 _2004_
*2030 _2005_
*2031 _2006_
*2032 _2007_
*2033 _2008_
*2034 _2009_
*2035 _2010_
*2036 _2011_
*2037 _2012_
*2038 _2013_
*2039 _2014_
*2040 _2015_
*2041 _2016_
*2042 _2017_
*2043 _2018_
*2044 _2019_
*2045 _2020_
*2046 _2021_
*2047 _2022_
*2048 _2023_
*2049 _2024_
*2050 _2025_
*2051 _2026_
*2052 _2027_
*2053 _2028_
*2054 _2029_
*2055 _2030_
*2056 _2031_
*2057 _2032_
*2058 clknet_0_clk
*2059 clknet_4_0_0_clk
*2060 clknet_4_10_0_clk
*2061 clknet_4_11_0_clk
*2062 clknet_4_12_0_clk
*2063 clknet_4_13_0_clk
*2064 clknet_4_14_0_clk
*2065 clknet_4_15_0_clk
*2066 clknet_4_1_0_clk
*2067 clknet_4_2_0_clk
*2068 clknet_4_3_0_clk
*2069 clknet_4_4_0_clk
*2070 clknet_4_5_0_clk
*2071 clknet_4_6_0_clk
*2072 clknet_4_7_0_clk
*2073 clknet_4_8_0_clk
*2074 clknet_4_9_0_clk
*2075 clknet_leaf_0_clk
*2076 clknet_leaf_10_clk
*2077 clknet_leaf_11_clk
*2078 clknet_leaf_12_clk
*2079 clknet_leaf_13_clk
*2080 clknet_leaf_14_clk
*2081 clknet_leaf_15_clk
*2082 clknet_leaf_16_clk
*2083 clknet_leaf_17_clk
*2084 clknet_leaf_18_clk
*2085 clknet_leaf_19_clk
*2086 clknet_leaf_1_clk
*2087 clknet_leaf_20_clk
*2088 clknet_leaf_21_clk
*2089 clknet_leaf_22_clk
*2090 clknet_leaf_23_clk
*2091 clknet_leaf_24_clk
*2092 clknet_leaf_25_clk
*2093 clknet_leaf_26_clk
*2094 clknet_leaf_27_clk
*2095 clknet_leaf_28_clk
*2096 clknet_leaf_29_clk
*2097 clknet_leaf_2_clk
*2098 clknet_leaf_30_clk
*2099 clknet_leaf_31_clk
*2100 clknet_leaf_32_clk
*2101 clknet_leaf_33_clk
*2102 clknet_leaf_34_clk
*2103 clknet_leaf_35_clk
*2104 clknet_leaf_36_clk
*2105 clknet_leaf_37_clk
*2106 clknet_leaf_38_clk
*2107 clknet_leaf_39_clk
*2108 clknet_leaf_3_clk
*2109 clknet_leaf_40_clk
*2110 clknet_leaf_41_clk
*2111 clknet_leaf_42_clk
*2112 clknet_leaf_43_clk
*2113 clknet_leaf_44_clk
*2114 clknet_leaf_45_clk
*2115 clknet_leaf_46_clk
*2116 clknet_leaf_47_clk
*2117 clknet_leaf_48_clk
*2118 clknet_leaf_49_clk
*2119 clknet_leaf_4_clk
*2120 clknet_leaf_50_clk
*2121 clknet_leaf_51_clk
*2122 clknet_leaf_52_clk
*2123 clknet_leaf_53_clk
*2124 clknet_leaf_54_clk
*2125 clknet_leaf_55_clk
*2126 clknet_leaf_56_clk
*2127 clknet_leaf_57_clk
*2128 clknet_leaf_58_clk
*2129 clknet_leaf_59_clk
*2130 clknet_leaf_5_clk
*2131 clknet_leaf_60_clk
*2132 clknet_leaf_61_clk
*2133 clknet_leaf_62_clk
*2134 clknet_leaf_63_clk
*2135 clknet_leaf_6_clk
*2136 clknet_leaf_7_clk
*2137 clknet_leaf_8_clk
*2138 clknet_leaf_9_clk
*2139 net
*2140 net1
*2141 net10
*2142 net100
*2143 net1000
*2144 net1001
*2145 net1002
*2146 net1003
*2147 net1004
*2148 net1005
*2149 net1006
*2150 net1007
*2151 net1008
*2152 net1009
*2153 net101
*2154 net1010
*2155 net1011
*2156 net1012
*2157 net1013
*2158 net1014
*2159 net1015
*2160 net1016
*2161 net1017
*2162 net1018
*2163 net1019
*2164 net102
*2165 net1020
*2166 net1021
*2167 net1022
*2168 net1023
*2169 net1024
*2170 net1025
*2171 net1026
*2172 net1027
*2173 net1028
*2174 net1029
*2175 net103
*2176 net1030
*2177 net1031
*2178 net1032
*2179 net1033
*2180 net1034
*2181 net1035
*2182 net1036
*2183 net1037
*2184 net1038
*2185 net1039
*2186 net104
*2187 net1040
*2188 net1041
*2189 net1042
*2190 net1043
*2191 net1044
*2192 net1045
*2193 net1046
*2194 net1047
*2195 net1048
*2196 net1049
*2197 net105
*2198 net1050
*2199 net1051
*2200 net1052
*2201 net1053
*2202 net1054
*2203 net1055
*2204 net1056
*2205 net1057
*2206 net1058
*2207 net1059
*2208 net106
*2209 net1060
*2210 net1061
*2211 net1062
*2212 net1063
*2213 net1064
*2214 net1065
*2215 net1066
*2216 net1067
*2217 net1068
*2218 net1069
*2219 net107
*2220 net1070
*2221 net1071
*2222 net1072
*2223 net1073
*2224 net1074
*2225 net1075
*2226 net1076
*2227 net1077
*2228 net1078
*2229 net1079
*2230 net108
*2231 net1080
*2232 net1081
*2233 net1082
*2234 net1083
*2235 net1084
*2236 net1085
*2237 net1086
*2238 net1087
*2239 net1088
*2240 net1089
*2241 net109
*2242 net1090
*2243 net1091
*2244 net1092
*2245 net1093
*2246 net1094
*2247 net1095
*2248 net1096
*2249 net1097
*2250 net1098
*2251 net1099
*2252 net11
*2253 net110
*2254 net1100
*2255 net1101
*2256 net1102
*2257 net1103
*2258 net1104
*2259 net1105
*2260 net1106
*2261 net1107
*2262 net1108
*2263 net1109
*2264 net111
*2265 net1110
*2266 net1111
*2267 net1112
*2268 net1113
*2269 net1114
*2270 net1115
*2271 net1116
*2272 net1117
*2273 net1118
*2274 net1119
*2275 net112
*2276 net1120
*2277 net1121
*2278 net1122
*2279 net1123
*2280 net1124
*2281 net1125
*2282 net1126
*2283 net1127
*2284 net1128
*2285 net1129